Version 4
SHEET 1 2104 756
WIRE 128 32 -48 32
WIRE 448 32 208 32
WIRE 448 64 448 32
WIRE 448 64 368 64
WIRE 496 64 448 64
WIRE -48 144 -48 32
WIRE 368 160 368 128
WIRE 368 160 272 160
WIRE 496 160 496 128
WIRE 800 160 496 160
WIRE 1008 160 800 160
WIRE 1168 160 1008 160
WIRE 1312 160 1232 160
WIRE 1568 160 1312 160
WIRE 1904 160 1824 160
WIRE 2048 160 1904 160
WIRE 272 176 272 160
WIRE 368 192 368 160
WIRE 496 192 496 160
WIRE 2048 192 2048 160
WIRE 1312 208 1312 160
WIRE 1904 208 1904 160
WIRE 800 224 800 160
WIRE 1008 224 1008 160
WIRE 368 272 368 256
WIRE 432 272 368 272
WIRE 496 272 496 256
WIRE 496 272 432 272
WIRE -48 304 -48 224
WIRE 432 304 432 272
WIRE 432 304 -48 304
WIRE 1312 304 1312 272
WIRE 1696 304 1696 256
WIRE 1696 304 1312 304
WIRE 1904 304 1904 272
WIRE 1904 304 1696 304
WIRE 2048 304 2048 272
WIRE 2048 304 1904 304
WIRE 1312 320 1312 304
WIRE 800 400 800 304
WIRE 880 400 800 400
WIRE 1008 400 1008 304
WIRE 1008 400 944 400
WIRE 1264 400 1008 400
WIRE 1008 480 1008 400
WIRE 800 528 800 400
WIRE 944 528 800 528
WIRE 800 592 800 528
WIRE 800 704 800 672
WIRE 1008 704 1008 576
WIRE 1312 704 1312 416
FLAG 272 176 0
FLAG 800 704 0
FLAG 1008 704 0
FLAG 1312 704 0
SYMBOL voltage -48 128 R0
WINDOW 123 0 0 Left 2
WINDOW 39 0 0 Left 2
SYMATTR InstName V1
SYMATTR Value SINE(0 338.4 50)
SYMBOL res 224 16 R90
WINDOW 0 0 56 VBottom 2
WINDOW 3 32 56 VTop 2
SYMATTR InstName R1
SYMATTR Value 4.7
SYMBOL diode 480 64 R0
SYMATTR InstName D1
SYMATTR Value RRE02VS6S
SYMBOL diode 512 256 R180
WINDOW 0 24 64 Left 2
WINDOW 3 150 -3 Left 2
SYMATTR InstName D2
SYMATTR Value RRE02VS6S
SYMBOL diode 384 128 R180
WINDOW 0 24 64 Left 2
WINDOW 3 24 0 Left 2
SYMATTR InstName D3
SYMATTR Value RRE02VS6S
SYMBOL diode 352 192 R0
WINDOW 3 153 66 Left 2
SYMATTR InstName D4
SYMATTR Value RRE02VS6S
SYMBOL res 784 208 R0
SYMATTR InstName R2
SYMATTR Value 220K
SYMATTR SpiceLine pwr=1
SYMBOL res 784 576 R0
SYMATTR InstName R3
SYMATTR Value 10K
SYMBOL res 992 208 R0
SYMATTR InstName R4
SYMATTR Value 47k
SYMATTR SpiceLine pwr=0.5W
SYMBOL cap 944 384 R90
WINDOW 0 0 32 VBottom 2
WINDOW 3 32 32 VTop 2
SYMATTR InstName C1
SYMATTR Value 22p
SYMBOL npn 944 480 R0
SYMATTR InstName Q1
SYMBOL diode 1168 176 R270
WINDOW 0 32 32 VTop 2
WINDOW 3 0 32 VBottom 2
SYMATTR InstName D5
SYMBOL cap 1296 208 R0
SYMATTR InstName C2
SYMATTR Value 470µF
SYMATTR SpiceLine V=16V
SYMBOL nmos 1264 320 R0
SYMATTR InstName M1
SYMBOL PowerProducts\\LT1083-5 1696 160 R0
SYMATTR InstName U1
SYMBOL cap 1888 208 R0
SYMATTR InstName C3
SYMATTR Value 470µF
SYMATTR SpiceLine V=16V
SYMBOL res 2032 176 R0
SYMATTR InstName R5
SYMATTR Value 1k
TEXT -82 310 Left 2 !.tran 10s
