Version 4
SHEET 1 1744 680
WIRE 112 -80 64 -80
WIRE 256 -80 192 -80
WIRE 64 32 64 -80
WIRE 64 32 -64 32
WIRE 112 32 64 32
WIRE 256 32 256 -80
WIRE 256 32 176 32
WIRE 528 32 256 32
WIRE 432 112 384 112
WIRE 528 112 528 32
WIRE 528 112 496 112
WIRE 560 112 528 112
WIRE 816 112 624 112
WIRE 896 112 816 112
WIRE 1008 112 896 112
WIRE 1344 112 1264 112
WIRE 1456 112 1344 112
WIRE -64 128 -64 32
WIRE 64 128 64 32
WIRE 112 128 64 128
WIRE 256 128 256 32
WIRE 256 128 176 128
WIRE 816 144 816 112
WIRE 896 144 896 112
WIRE 1344 144 1344 112
WIRE 1456 144 1456 112
WIRE 816 208 816 192
WIRE 384 224 384 112
WIRE 432 224 384 224
WIRE 528 224 496 224
WIRE 560 224 528 224
WIRE 624 224 624 112
WIRE 384 240 384 224
WIRE 816 256 816 208
WIRE 896 256 896 208
WIRE 896 256 816 256
WIRE 1136 256 1136 208
WIRE 1136 256 896 256
WIRE 1344 256 1344 208
WIRE 1344 256 1136 256
WIRE 1456 256 1456 224
WIRE 1456 256 1344 256
WIRE 816 272 816 256
WIRE -64 288 -64 208
WIRE 528 288 528 224
WIRE 528 288 -64 288
FLAG 384 240 0
FLAG 816 272 0
SYMBOL voltage -64 112 R0
WINDOW 123 0 0 Left 2
WINDOW 39 0 0 Left 2
SYMATTR InstName V1
SYMATTR Value SINE(0 340 50)
SYMBOL cap 176 16 R90
WINDOW 0 0 32 VBottom 2
WINDOW 3 32 32 VTop 2
SYMATTR InstName C1
SYMATTR Value 1µ
SYMATTR SpiceLine V=600V
SYMBOL res 208 -96 R90
WINDOW 0 0 56 VBottom 2
WINDOW 3 32 56 VTop 2
SYMATTR InstName R1
SYMATTR Value 470k
SYMATTR SpiceLine pwr=1
SYMBOL diode 432 128 R270
WINDOW 0 32 32 VTop 2
WINDOW 3 0 32 VBottom 2
SYMATTR InstName D1
SYMATTR Value RR2L6S
SYMBOL cap 880 144 R0
SYMATTR InstName C2
SYMATTR Value 470µ
SYMATTR SpiceLine V=16V
SYMBOL zener 832 208 R180
WINDOW 0 24 64 Left 2
WINDOW 3 24 0 Left 2
SYMATTR InstName D5
SYMATTR Value BZX84C6V2L
SYMATTR Description Schottky diode
SYMATTR Type schottky
SYMBOL diode 560 128 R270
WINDOW 0 32 32 VTop 2
WINDOW 3 0 32 VBottom 2
SYMATTR InstName D2
SYMATTR Value RR2L6S
SYMBOL diode 432 240 R270
WINDOW 0 32 32 VTop 2
WINDOW 3 0 32 VBottom 2
SYMATTR InstName D3
SYMATTR Value RR2L6S
SYMBOL diode 560 240 R270
WINDOW 0 32 32 VTop 2
WINDOW 3 0 32 VBottom 2
SYMATTR InstName D4
SYMATTR Value RR2L6S
SYMBOL cap 176 112 R90
WINDOW 0 0 32 VBottom 2
WINDOW 3 32 32 VTop 2
SYMATTR InstName C3
SYMATTR Value 1µ
SYMATTR SpiceLine V=600V
SYMBOL PowerProducts\\LT1084-3.3 1136 112 R0
SYMATTR InstName U1
SYMBOL cap 1328 144 R0
SYMATTR InstName C4
SYMATTR Value 470µ
SYMATTR SpiceLine V=16V
SYMBOL res 1440 128 R0
SYMATTR InstName R2
SYMATTR Value 33R
TEXT -96 376 Left 2 !.tran 0.1s
