Version 4
SHEET 1 1028 680
WIRE 80 -48 0 -48
WIRE 176 -48 160 -48
WIRE 0 64 0 -48
WIRE 80 64 0 64
WIRE 176 64 176 -48
WIRE 176 64 144 64
WIRE 208 64 176 64
WIRE 288 64 272 64
WIRE 352 64 288 64
WIRE 624 64 448 64
WIRE 784 64 624 64
WIRE 864 64 784 64
WIRE 960 64 864 64
WIRE 288 112 288 64
WIRE 624 128 624 64
WIRE 0 144 0 64
WIRE 784 192 784 64
WIRE 864 192 864 64
WIRE 960 192 960 64
WIRE 288 208 288 192
WIRE 432 208 432 112
WIRE 432 208 288 208
WIRE 624 288 624 208
WIRE 624 288 480 288
WIRE 624 320 624 288
WIRE 0 400 0 224
WIRE 432 400 432 304
WIRE 432 400 0 400
WIRE 624 400 624 384
WIRE 624 400 432 400
WIRE 784 400 784 256
WIRE 784 400 624 400
WIRE 864 400 864 256
WIRE 864 400 784 400
WIRE 960 400 960 272
WIRE 960 400 864 400
WIRE 0 416 0 400
FLAG 0 416 0
SYMBOL voltage 0 128 R0
WINDOW 123 0 0 Left 2
WINDOW 39 0 0 Left 2
SYMATTR InstName V1
SYMATTR Value SINE(0 310 50)
SYMBOL zener 640 384 R180
WINDOW 0 24 64 Left 2
WINDOW 3 24 0 Left 2
SYMATTR InstName D1
SYMATTR Value BZX84C6V2L
SYMBOL nmos 352 112 R270
SYMATTR InstName M1
SYMATTR Value R6020PNJ
SYMBOL diode 208 80 R270
WINDOW 0 32 32 VTop 2
WINDOW 3 0 32 VBottom 2
SYMATTR InstName D2
SYMBOL res 272 96 R0
SYMATTR InstName R1
SYMATTR Value 10k
SYMBOL nmos 480 208 M0
SYMATTR InstName M2
SYMATTR Value R6020PNJ
SYMBOL res 608 112 R0
SYMATTR InstName R2
SYMATTR Value 10k
SYMBOL res 944 176 R0
SYMATTR InstName R3
SYMATTR Value 50R
SYMBOL cap 768 192 R0
SYMATTR InstName C1
SYMATTR Value 470µ
SYMBOL cap 848 192 R0
SYMATTR InstName C2
SYMATTR Value 470µ
SYMBOL cap 144 48 R90
WINDOW 0 0 32 VBottom 2
WINDOW 3 32 32 VTop 2
SYMATTR InstName C3
SYMATTR Value 200p
SYMBOL res 176 -64 R90
WINDOW 0 0 56 VBottom 2
WINDOW 3 32 56 VTop 2
SYMATTR InstName R4
SYMATTR Value 330k
TEXT -34 440 Left 2 !.tran 100m
